taxonomy/R3-12470-2.glm
// R3-12470-2.glm 

module powerflow
{ 
     solver_method NR; 
}

object regulator:785
{ 
     name R3-12-47-2_reg_1; 
     from R3-12-47-2_node_267; 
     to R3-12-47-2_meter_63; 
     phases ABCN; 
     configuration regulator_configuration:786; 
} 

object regulator_configuration:786
{ 
     name feeder_reg_cfg; 
     Control OUTPUT_VOLTAGE; 
     band_center 7500.0; 
     band_width 120; 
     connect_type WYE_WYE; 
     time_delay 30; 
     raise_taps 16; 
     lower_taps 16; 
     regulation 0.10; 
     tap_pos_A 0; 
     tap_pos_B 0; 
     tap_pos_C 0; 
} 

object fuse:724
{ 
     name R3-12-47-2_fuse_1; 
     phases ABCN; 
     from R3-12-47-2_node_105; 
     to R3-12-47-2_node_88; 
     current_limit 100; 
     status CLOSED; 
} 

object fuse:725
{ 
     name R3-12-47-2_fuse_2; 
     phases ABCN; 
     from R3-12-47-2_node_88; 
     to R3-12-47-2_node_87; 
     current_limit 200; 
     status CLOSED; 
} 

object fuse:726
{ 
     name R3-12-47-2_fuse_3; 
     phases BN; 
     from R3-12-47-2_node_196; 
     to R3-12-47-2_node_90; 
     current_limit 40; 
     status CLOSED; 
} 

object fuse:727
{ 
     name R3-12-47-2_fuse_4; 
     phases ABCN; 
     from R3-12-47-2_node_201; 
     to R3-12-47-2_node_81; 
     current_limit 25; 
     status CLOSED; 
} 

object fuse:728
{ 
     name R3-12-47-2_fuse_5; 
     phases ABCN; 
     from R3-12-47-2_node_202; 
     to R3-12-47-2_node_82; 
     current_limit 25; 
     status CLOSED; 
} 

object fuse:729
{ 
     name R3-12-47-2_fuse_6; 
     phases ABCN; 
     from R3-12-47-2_node_227; 
     to R3-12-47-2_node_84; 
     current_limit 65; 
     status CLOSED; 
} 

object fuse:730
{ 
     name R3-12-47-2_fuse_7; 
     phases BN; 
     from R3-12-47-2_node_217; 
     to R3-12-47-2_node_95; 
     current_limit 25; 
     status CLOSED; 
} 

object fuse:731
{ 
     name R3-12-47-2_fuse_8; 
     phases ABCN; 
     from R3-12-47-2_node_198; 
     to R3-12-47-2_node_91; 
     current_limit 40; 
     status CLOSED; 
} 

object fuse:732
{ 
     name R3-12-47-2_fuse_9; 
     phases ABCN; 
     from R3-12-47-2_node_198; 
     to R3-12-47-2_node_83; 
     current_limit 80; 
     status CLOSED; 
} 

object fuse:733
{ 
     name R3-12-47-2_fuse_10; 
     phases ABCN; 
     from R3-12-47-2_node_209; 
     to R3-12-47-2_node_85; 
     current_limit 65; 
     status CLOSED; 
} 

object fuse:734
{ 
     name R3-12-47-2_fuse_11; 
     phases ABCN; 
     from R3-12-47-2_node_211; 
     to R3-12-47-2_node_93; 
     current_limit 100; 
     status CLOSED; 
} 

object fuse:735
{ 
     name R3-12-47-2_fuse_12; 
     phases ABCN; 
     from R3-12-47-2_node_184; 
     to R3-12-47-2_node_89; 
     current_limit 65; 
     status CLOSED; 
} 

object fuse:736
{ 
     name R3-12-47-2_fuse_13; 
     phases ABCN; 
     from R3-12-47-2_node_210; 
     to R3-12-47-2_node_92; 
     current_limit 65; 
     status CLOSED; 
} 

object fuse:737
{ 
     name R3-12-47-2_fuse_14; 
     phases ABCN; 
     from R3-12-47-2_node_213; 
     to R3-12-47-2_node_94; 
     current_limit 65; 
     status CLOSED; 
} 

object fuse:738
{ 
     name R3-12-47-2_fuse_15; 
     phases ABCN; 
     from R3-12-47-2_node_215; 
     to R3-12-47-2_node_86; 
     current_limit 65; 
     status CLOSED; 
} 

object fuse:739
{ 
     name R3-12-47-2_fuse_16; 
     phases BN; 
     from R3-12-47-2_node_115; 
     to R3-12-47-2_node_80; 
     current_limit 118; 
     status CLOSED; 
} 

object fuse:740
{ 
     name R3-12-47-2_fuse_17; 
     phases ABCN; 
     from R3-12-47-2_node_128; 
     to R3-12-47-2_node_73; 
     current_limit 300; 
     status CLOSED; 
} 

object fuse:741
{ 
     name R3-12-47-2_fuse_18; 
     phases ABCN; 
     from R3-12-47-2_node_3; 
     to R3-12-47-2_node_78; 
     current_limit 90; 
     status CLOSED; 
} 

object fuse:742
{ 
     name R3-12-47-2_fuse_19; 
     phases ABCN; 
     from R3-12-47-2_node_2; 
     to R3-12-47-2_node_79; 
     current_limit 18; 
     status CLOSED; 
} 

object fuse:743
{ 
     name R3-12-47-2_fuse_20; 
     phases ABCN; 
     from R3-12-47-2_node_6; 
     to R3-12-47-2_node_72; 
     current_limit 300; 
     status CLOSED; 
} 

object fuse:744
{ 
     name R3-12-47-2_fuse_21; 
     phases ABCN; 
     from R3-12-47-2_node_8; 
     to R3-12-47-2_node_76; 
     current_limit 300; 
     status CLOSED; 
} 

object line_configuration:21
{ 
     conductor_B overhead_line_conductor:2; 
     conductor_N overhead_line_conductor:2; 
     spacing line_spacing:16; 
} 

object line_configuration:22
{ 
     conductor_A overhead_line_conductor:3; 
     conductor_B overhead_line_conductor:3; 
     conductor_C overhead_line_conductor:3; 
     conductor_N overhead_line_conductor:3; 
     spacing line_spacing:17; 
} 

object line_configuration:23
{ 
     conductor_A overhead_line_conductor:2; 
     conductor_B overhead_line_conductor:2; 
     conductor_C overhead_line_conductor:2; 
     conductor_N overhead_line_conductor:2; 
     spacing line_spacing:17; 
} 

object line_configuration:24
{ 
     conductor_A overhead_line_conductor:2; 
     conductor_N overhead_line_conductor:2; 
     spacing line_spacing:18; 
} 

object line_configuration:25
{ 
     conductor_B overhead_line_conductor:4; 
     conductor_N overhead_line_conductor:4; 
     spacing line_spacing:16; 
} 

object line_configuration:26
{ 
     conductor_B overhead_line_conductor:5; 
     conductor_N overhead_line_conductor:5; 
     spacing line_spacing:16; 
} 

object line_configuration:27
{ 
     conductor_A overhead_line_conductor:3; 
     conductor_N overhead_line_conductor:3; 
     spacing line_spacing:18; 
} 

object line_configuration:28
{ 
     conductor_A overhead_line_conductor:3; 
     conductor_B overhead_line_conductor:3; 
     conductor_N overhead_line_conductor:3; 
     spacing line_spacing:19; 
} 

object line_configuration:29
{ 
     conductor_A overhead_line_conductor:3; 
     conductor_N overhead_line_conductor:3; 
     spacing line_spacing:18; 
} 

object line_configuration:30
{ 
     conductor_A overhead_line_conductor:5; 
     conductor_B overhead_line_conductor:5; 
     conductor_C overhead_line_conductor:5; 
     conductor_N overhead_line_conductor:5; 
     spacing line_spacing:17; 
} 

object line_configuration:31
{ 
     conductor_B overhead_line_conductor:6; 
     conductor_N overhead_line_conductor:6; 
     spacing line_spacing:16; 
} 

object line_configuration:32
{ 
     conductor_A overhead_line_conductor:3; 
     conductor_B overhead_line_conductor:3; 
     conductor_C overhead_line_conductor:3; 
     conductor_N overhead_line_conductor:3; 
     spacing line_spacing:17; 
} 

object line_configuration:33
{ 
     conductor_C overhead_line_conductor:7; 
     conductor_N overhead_line_conductor:7; 
     spacing line_spacing:20; 
} 

object line_configuration:34
{ 
     conductor_A overhead_line_conductor:6; 
     conductor_B overhead_line_conductor:6; 
     conductor_C overhead_line_conductor:6; 
     conductor_N overhead_line_conductor:6; 
     spacing line_spacing:17; 
} 

object line_configuration:35
{ 
     conductor_A overhead_line_conductor:8; 
     conductor_B overhead_line_conductor:8; 
     conductor_C overhead_line_conductor:8; 
     conductor_N overhead_line_conductor:8; 
     spacing line_spacing:17; 
} 

object line_configuration:36
{ 
     conductor_A overhead_line_conductor:9; 
     conductor_B overhead_line_conductor:9; 
     conductor_C overhead_line_conductor:9; 
     conductor_N overhead_line_conductor:9; 
     spacing line_spacing:17; 
} 

object line_configuration:37
{ 
     conductor_A overhead_line_conductor:3; 
     conductor_B overhead_line_conductor:3; 
     conductor_C overhead_line_conductor:3; 
     conductor_N overhead_line_conductor:3; 
     spacing line_spacing:17; 
} 

object line_configuration:38
{ 
     conductor_C underground_line_conductor:10; 
     conductor_N underground_line_conductor:10; 
     spacing line_spacing:20; 
} 

object line_configuration:39
{ 
     conductor_A underground_line_conductor:10; 
     conductor_B underground_line_conductor:10; 
     conductor_C underground_line_conductor:10; 
     conductor_N underground_line_conductor:10; 
     spacing line_spacing:17; 
} 

object line_configuration:40
{ 
     conductor_A underground_line_conductor:10; 
     conductor_N underground_line_conductor:10; 
     spacing line_spacing:18; 
} 

object line_configuration:41
{ 
     conductor_A underground_line_conductor:11; 
     conductor_B underground_line_conductor:11; 
     conductor_C underground_line_conductor:11; 
     conductor_N underground_line_conductor:11; 
     spacing line_spacing:17; 
} 

object line_configuration:42
{ 
     conductor_A underground_line_conductor:12; 
     conductor_B underground_line_conductor:12; 
     conductor_C underground_line_conductor:12; 
     conductor_N underground_line_conductor:12; 
     spacing line_spacing:17; 
} 

object line_configuration:43
{ 
     conductor_A underground_line_conductor:13; 
     conductor_B underground_line_conductor:13; 
     conductor_C underground_line_conductor:13; 
     conductor_N underground_line_conductor:13; 
     spacing line_spacing:17; 
} 

object line_configuration:44
{ 
     conductor_B underground_line_conductor:10; 
     conductor_N underground_line_conductor:10; 
     spacing line_spacing:16; 
} 

object line_configuration:45
{ 
     conductor_C underground_line_conductor:11; 
     conductor_N underground_line_conductor:11; 
     spacing line_spacing:20; 
} 

object line_configuration:46
{ 
     conductor_A overhead_line_conductor:14; 
     conductor_B overhead_line_conductor:14; 
     conductor_C overhead_line_conductor:14; 
     conductor_N overhead_line_conductor:14; 
     spacing line_spacing:17; 
} 

object line_configuration:47
{ 
     conductor_B overhead_line_conductor:14; 
     conductor_N overhead_line_conductor:14; 
     spacing line_spacing:16; 
} 

object line_spacing:16
{ 
     distance_BN 36.0 in; 
} 

object line_spacing:17
{ 
     distance_AB 48.0 in; 
     distance_BC 48.0 in; 
     distance_AC 48.0 in; 
     distance_AN 36.0 in; 
     distance_BN 36.0 in; 
     distance_CN 36.0 in; 
} 

object line_spacing:18
{ 
     distance_AN 36.0 in; 
} 

object line_spacing:19
{ 
     distance_AB 48.0 in; 
     distance_AN 36.0 in; 
     distance_BN 36.0 in; 
} 

object line_spacing:20
{ 
     distance_CN 36.0 in; 
} 

object load:314
{ 
     name R3-12-47-2_load_1; 
     parent R3-12-47-2_meter_1; 
     phases BN; 
     voltage_B -3600-6235j; 
     constant_power_B 6435.223+1906.9363j; 
     nominal_voltage 7200; 
     load_class C; 
} 

object load:315
{ 
     name R3-12-47-2_load_2; 
     parent R3-12-47-2_meter_2; 
     phases AN; 
     voltage_A 7200+0.0j; 
     constant_power_A 6156.2257+1836.7523j; 
     nominal_voltage 7200; 
     load_class C; 
} 

object load:316
{ 
     name R3-12-47-2_load_3; 
     parent R3-12-47-2_meter_3; 
     phases AN; 
     voltage_A 7200+0.0j; 
     constant_power_A 10260.3762+3061.2538j; 
     nominal_voltage 7200; 
     load_class C; 
} 

object load:317
{ 
     name R3-12-47-2_load_4; 
     parent R3-12-47-2_meter_4; 
     phases BN; 
     voltage_B -3600-6235j; 
     constant_power_B 429.0149+127.1291j; 
     nominal_voltage 7200; 
     load_class I; 
} 

object load:318
{ 
     name R3-12-47-2_load_5; 
     parent R3-12-47-2_meter_5; 
     phases BN; 
     voltage_B -3600-6235j; 
     constant_power_B 10725.3717+3178.2272j; 
     nominal_voltage 7200; 
     load_class C; 
} 

object load:319
{ 
     name R3-12-47-2_load_6; 
     parent R3-12-47-2_meter_6; 
     phases AN; 
     voltage_A 7200+0.0j; 
     constant_power_A 6156.2257+1836.7523j; 
     nominal_voltage 7200; 
     load_class C; 
} 

object load:320
{ 
     name R3-12-47-2_load_7; 
     parent R3-12-47-2_meter_7; 
     phases AN; 
     voltage_A 7200+0.0j; 
     constant_power_A 6156.2257+1836.7523j; 
     nominal_voltage 7200; 
     load_class C; 
} 

object load:321
{ 
     name R3-12-47-2_load_8; 
     parent R3-12-47-2_meter_8; 
     phases BN; 
     voltage_B -3600-6235j; 
     constant_power_B 4290.1487+1271.2909j; 
     nominal_voltage 7200; 
     load_class C; 
} 

object load:322
{ 
     name R3-12-47-2_load_9; 
     parent R3-12-47-2_meter_9; 
     phases ABCN; 
     voltage_A 7200+0.0j; 
     voltage_B -3600-6235j; 
     voltage_C -3600+6235j; 
     constant_power_A 10260.3762+3061.2538j; 
     constant_power_B 10725.3717+3178.2272j; 
     constant_power_C 10432.0447+3103.7766j; 
     nominal_voltage 7200; 
     load_class C; 
} 

object load:323
{ 
     name R3-12-47-2_load_10; 
     parent R3-12-47-2_meter_10; 
     phases ABN; 
     voltage_A 7200+0.0j; 
     voltage_B -3600-6235j; 
     constant_power_A 8208.3009+2449.0031j; 
     constant_power_B 8580.2974+2542.5817j; 
     nominal_voltage 7200; 
     load_class C; 
} 

object load:324
{ 
     name R3-12-47-2_load_11; 
     parent R3-12-47-2_meter_11; 
     phases AN; 
     voltage_A 7200+0.0j; 
     constant_power_A 6156.2257+1836.7523j; 
     nominal_voltage 7200; 
     load_class C; 
} 

object load:325
{ 
     name R3-12-47-2_load_12; 
     parent R3-12-47-2_meter_12; 
     phases ABN; 
     voltage_A 7200+0.0j; 
     voltage_B -3600-6235j; 
     constant_power_A 8208.3009+2449.0031j; 
     constant_power_B 8580.2974+2542.5817j; 
     nominal_voltage 7200; 
     load_class C; 
} 

object load:326
{ 
     name R3-12-47-2_load_13; 
     parent R3-12-47-2_meter_13; 
     phases AN; 
     voltage_A 7200+0.0j; 
     constant_power_A 2052.0752+612.2508j; 
     nominal_voltage 7200; 
     load_class C; 
} 

object load:327
{ 
     name R3-12-47-2_load_14; 
     parent R3-12-47-2_meter_14; 
     phases ABCN; 
     voltage_A 7200+0.0j; 
     voltage_B -3600-6235j; 
     voltage_C -3600+6235j; 
     constant_power_A 6156.2257+1836.7523j; 
     constant_power_B 6435.223+1906.9363j; 
     constant_power_C 6259.2268+1862.266j; 
     nominal_voltage 7200; 
     load_class C; 
} 

object load:328
{ 
     name R3-12-47-2_load_15; 
     parent R3-12-47-2_meter_15; 
     phases ABCN; 
     voltage_A 7200+0.0j; 
     voltage_B -3600-6235j; 
     voltage_C -3600+6235j; 
     constant_power_A 20520.7523+6122.5077j; 
     constant_power_B 21450.7435+6356.4543j; 
     constant_power_C 20864.0894+6207.5532j; 
     nominal_voltage 7200; 
     load_class C; 
} 

object load:329
{ 
     name R3-12-47-2_load_16; 
     parent R3-12-47-2_meter_16; 
     phases BN; 
     voltage_B -3600-6235j; 
     constant_power_B 6435.223+1906.9363j; 
     nominal_voltage 7200; 
     load_class C; 
} 

object load:330
{ 
     name R3-12-47-2_load_17; 
     parent R3-12-47-2_meter_17; 
     phases ABCN; 
     voltage_A 7200+0.0j; 
     voltage_B -3600-6235j; 
     voltage_C -3600+6235j; 
     constant_power_A 20520.7523+6122.5077j; 
     constant_power_B 21450.7435+6356.4543j; 
     constant_power_C 20864.0894+6207.5532j; 
     nominal_voltage 7200; 
     load_class C; 
} 

object load:331
{ 
     name R3-12-47-2_load_18; 
     parent R3-12-47-2_meter_18; 
     phases ABCN; 
     voltage_A 7200+0.0j; 
     voltage_B -3600-6235j; 
     voltage_C -3600+6235j; 
     constant_power_A 10260.3762+3061.2538j; 
     constant_power_B 10725.3717+3178.2272j; 
     constant_power_C 10432.0447+3103.7766j; 
     nominal_voltage 7200; 
     load_class C; 
} 

object load:332
{ 
     name R3-12-47-2_load_19; 
     parent R3-12-47-2_meter_19; 
     phases ABCN; 
     voltage_A 7200+0.0j; 
     voltage_B -3600-6235j; 
     voltage_C -3600+6235j; 
     constant_power_A 20520.7523+6122.5077j; 
     constant_power_B 21450.7435+6356.4543j; 
     constant_power_C 20864.0894+6207.5532j; 
     nominal_voltage 7200; 
     load_class C; 
} 

object load:333
{ 
     name R3-12-47-2_load_20; 
     parent R3-12-47-2_meter_20; 
     phases ABCN; 
     voltage_A 7200+0.0j; 
     voltage_B -3600-6235j; 
     voltage_C -3600+6235j; 
     constant_power_A 6156.2257+1836.7523j; 
     constant_power_B 6435.223+1906.9363j; 
     constant_power_C 6259.2268+1862.266j; 
     nominal_voltage 7200; 
     load_class C; 
} 

object load:334
{ 
     name R3-12-47-2_load_21; 
     parent R3-12-47-2_meter_21; 
     phases BN; 
     voltage_B -3600-6235j; 
     constant_power_B 6435.223+1906.9363j; 
     nominal_voltage 7200; 
     load_class C; 
} 

object load:335
{ 
     name R3-12-47-2_load_22; 
     parent R3-12-47-2_meter_22; 
     phases CN; 
     voltage_C -3600+6235j; 
     constant_power_C 10432.0447+3103.7766j; 
     nominal_voltage 7200; 
     load_class C; 
} 

object load:336
{ 
     name R3-12-47-2_load_23; 
     parent R3-12-47-2_meter_23; 
     phases CN; 
     voltage_C -3600+6235j; 
     constant_power_C 10432.0447+3103.7766j; 
     nominal_voltage 7200; 
     load_class I; 
} 

object load:337
{ 
     name R3-12-47-2_load_24; 
     parent R3-12-47-2_meter_24; 
     phases ABCN; 
     voltage_A 7200+0.0j; 
     voltage_B -3600-6235j; 
     voltage_C -3600+6235j; 
     constant_power_A 6156.2257+1836.7523j; 
     constant_power_B 6435.223+1906.9363j; 
     constant_power_C 6259.2268+1862.266j; 
     nominal_voltage 7200; 
     load_class C; 
} 

object load:338
{ 
     name R3-12-47-2_load_25; 
     parent R3-12-47-2_meter_25; 
     phases ABCN; 
     voltage_A 7200+0.0j; 
     voltage_B -3600-6235j; 
     voltage_C -3600+6235j; 
     constant_power_A 20520.7523+6122.5077j; 
     constant_power_B 21450.7435+6356.4543j; 
     constant_power_C 20864.0894+6207.5532j; 
     nominal_voltage 7200; 
     load_class C; 
} 

object load:339
{ 
     name R3-12-47-2_load_26; 
     parent R3-12-47-2_meter_26; 
     phases AN; 
     voltage_A 7200+0.0j; 
     constant_power_A 10260.3762+3061.2538j; 
     nominal_voltage 7200; 
     load_class C; 
} 

object load:340
{ 
     name R3-12-47-2_load_27; 
     parent R3-12-47-2_meter_27; 
     phases ABCN; 
     voltage_A 7200+0.0j; 
     voltage_B -3600-6235j; 
     voltage_C -3600+6235j; 
     constant_power_A 41041.5046+12245.0154j; 
     constant_power_B 42901.487+12712.9087j; 
     constant_power_C 41728.1788+12415.1064j; 
     nominal_voltage 7200; 
     load_class C; 
} 

object load:341
{ 
     name R3-12-47-2_load_28; 
     parent R3-12-47-2_meter_28; 
     phases ABCN; 
     voltage_A 7200+0.0j; 
     voltage_B -3600-6235j; 
     voltage_C -3600+6235j; 
     constant_power_A 136668.2104+40775.9011j; 
     constant_power_B 142861.9516+42333.9859j; 
     constant_power_C 138954.8355+41342.3042j; 
     nominal_voltage 7200; 
     load_class C; 
} 

object load:342
{ 
     name R3-12-47-2_load_29; 
     parent R3-12-47-2_meter_29; 
     phases ABCN; 
     voltage_A 7200+0.0j; 
     voltage_B -3600-6235j; 
     voltage_C -3600+6235j; 
     constant_power_A 41041.5046+12245.0154j; 
     constant_power_B 42901.487+12712.9087j; 
     constant_power_C 41728.1788+12415.1064j; 
     nominal_voltage 7200; 
     load_class I; 
} 

object load:343
{ 
     name R3-12-47-2_load_30; 
     parent R3-12-47-2_meter_30; 
     phases AN; 
     voltage_A 7200+0.0j; 
     constant_power_A 10260.3762+3061.2538j; 
     nominal_voltage 7200; 
     load_class C; 
} 

object load:344
{ 
     name R3-12-47-2_load_31; 
     parent R3-12-47-2_meter_31; 
     phases ABCN; 
     voltage_A 7200+0.0j; 
     voltage_B -3600-6235j; 
     voltage_C -3600+6235j; 
     constant_power_A 10260.3762+3061.2538j; 
     constant_power_B 10725.3717+3178.2272j; 
     constant_power_C 10432.0447+3103.7766j; 
     nominal_voltage 7200; 
     load_class C; 
} 

object load:345
{ 
     name R3-12-47-2_load_32; 
     parent R3-12-47-2_meter_32; 
     phases ABCN; 
     voltage_A 7200+0.0j; 
     voltage_B -3600-6235j; 
     voltage_C -3600+6235j; 
     constant_power_A 10260.3762+3061.2538j; 
     constant_power_B 10725.3717+3178.2272j; 
     constant_power_C 10432.0447+3103.7766j; 
     nominal_voltage 7200; 
     load_class C; 
} 

object load:346
{ 
     name R3-12-47-2_load_33; 
     parent R3-12-47-2_meter_33; 
     phases AN; 
     voltage_A 7200+0.0j; 
     constant_power_A 10260.3762+3061.2538j; 
     nominal_voltage 7200; 
     load_class C; 
} 

object load:347
{ 
     name R3-12-47-2_load_34; 
     parent R3-12-47-2_meter_34; 
     phases ABCN; 
     voltage_A 7200+0.0j; 
     voltage_B -3600-6235j; 
     voltage_C -3600+6235j; 
     constant_power_A 20520.7523+6122.5077j; 
     constant_power_B 21450.7435+6356.4543j; 
     constant_power_C 20864.0894+6207.5532j; 
     nominal_voltage 7200; 
     load_class C; 
} 

object load:348
{ 
     name R3-12-47-2_load_35; 
     parent R3-12-47-2_meter_35; 
     phases CN; 
     voltage_C -3600+6235j; 
     constant_power_C 6259.2268+1862.266j; 
     nominal_voltage 7200; 
     load_class C; 
} 

object load:349
{ 
     name R3-12-47-2_load_36; 
     parent R3-12-47-2_meter_36; 
     phases CN; 
     voltage_C -3600+6235j; 
     constant_power_C 6259.2268+1862.266j; 
     nominal_voltage 7200; 
     load_class C; 
} 

object load:350
{ 
     name R3-12-47-2_load_37; 
     parent R3-12-47-2_meter_37; 
     phases ABCN; 
     voltage_A 7200+0.0j; 
     voltage_B -3600-6235j; 
     voltage_C -3600+6235j; 
     constant_power_A 10260.3762+3061.2538j; 
     constant_power_B 10725.3717+3178.2272j; 
     constant_power_C 10432.0447+3103.7766j; 
     nominal_voltage 7200; 
     load_class C; 
} 

object load:351
{ 
     name R3-12-47-2_load_38; 
     parent R3-12-47-2_meter_38; 
     phases BN; 
     voltage_B -3600-6235j; 
     constant_power_B 10725.3717+3178.2272j; 
     nominal_voltage 7200; 
     load_class C; 
} 

object load:352
{ 
     name R3-12-47-2_load_39; 
     parent R3-12-47-2_meter_39; 
     phases ABCN; 
     voltage_A 7200+0.0j; 
     voltage_B -3600-6235j; 
     voltage_C -3600+6235j; 
     constant_power_A 20520.7523+6122.5077j; 
     constant_power_B 21450.7435+6356.4543j; 
     constant_power_C 20864.0894+6207.5532j; 
     nominal_voltage 7200; 
     load_class C; 
} 

object load:353
{ 
     name R3-12-47-2_load_40; 
     parent R3-12-47-2_meter_40; 
     phases BN; 
     voltage_B -3600-6235j; 
     constant_power_B 10725.3717+3178.2272j; 
     nominal_voltage 7200; 
     load_class C; 
} 

object load:354
{ 
     name R3-12-47-2_load_41; 
     parent R3-12-47-2_meter_41; 
     phases ABCN; 
     voltage_A 7200+0.0j; 
     voltage_B -3600-6235j; 
     voltage_C -3600+6235j; 
     constant_power_A 20520.7523+6122.5077j; 
     constant_power_B 21450.7435+6356.4543j; 
     constant_power_C 20864.0894+6207.5532j; 
     nominal_voltage 7200; 
     load_class C; 
} 

object load:355
{ 
     name R3-12-47-2_load_42; 
     parent R3-12-47-2_meter_42; 
     phases BN; 
     voltage_B -3600-6235j; 
     constant_power_B 4290.1487+1271.2909j; 
     nominal_voltage 7200; 
     load_class C;
} 

object load:356
{ 
     name R3-12-47-2_load_43; 
     parent R3-12-47-2_meter_43; 
     phases ABCN; 
     voltage_A 7200+0.0j; 
     voltage_B -3600-6235j; 
     voltage_C -3600+6235j; 
     constant_power_A 6156.2257+1836.7523j; 
     constant_power_B 6435.223+1906.9363j; 
     constant_power_C 6259.2268+1862.266j; 
     nominal_voltage 7200; 
     load_class C;
} 

object load:357
{ 
     name R3-12-47-2_load_44; 
     parent R3-12-47-2_meter_44; 
     phases BN; 
     voltage_B -3600-6235j; 
     constant_power_B 4290.1487+1271.2909j; 
     nominal_voltage 7200; 
     load_class C; 
} 

object load:358
{ 
     name R3-12-47-2_load_45; 
     parent R3-12-47-2_meter_45; 
     phases ABCN; 
     voltage_A 7200+0.0j; 
     voltage_B -3600-6235j; 
     voltage_C -3600+6235j; 
     constant_power_A 68402.5077+20408.3589j; 
     constant_power_B 71502.4783+21188.1812j; 
     constant_power_C 69546.9647+20691.8439j; 
     nominal_voltage 7200; 
     load_class I; 
} 

object load:359
{ 
     name R3-12-47-2_load_46; 
     parent R3-12-47-2_meter_46; 
     phases ABCN; 
     voltage_A 7200+0.0j; 
     voltage_B -3600-6235j; 
     voltage_C -3600+6235j; 
     constant_power_A 6200+1800j; 
     constant_power_B 6400+1900j; 
     constant_power_C 6300+1900j; 
     nominal_voltage 7200; 
     load_class I; 
} 

object load:360
{ 
     name R3-12-47-2_load_47; 
     parent R3-12-47-2_meter_47; 
     phases ABCN; 
     voltage_A 7200+0.0j; 
     voltage_B -3600-6235j; 
     voltage_C -3600+6235j; 
     constant_power_A 41041.5046+12245.0154j; 
     constant_power_B 42901.487+12712.9087j; 
     constant_power_C 41728.1788+12415.1064j; 
     nominal_voltage 7200; 
     load_class C;
} 

object load:361
{ 
     name R3-12-47-2_load_48; 
     parent R3-12-47-2_meter_48; 
     phases AN; 
     voltage_A 7200+0.0j; 
     constant_power_A 10260.3762+3061.2538j; 
     nominal_voltage 7200; 
     load_class C; 
} 

object load:362
{ 
     name R3-12-47-2_load_49; 
     parent R3-12-47-2_meter_49; 
     phases ABCN; 
     voltage_A 7200+0.0j; 
     voltage_B -3600-6235j; 
     voltage_C -3600+6235j; 
     constant_power_A 0+0j; 
     constant_power_B 0+0j; 
     constant_power_C 4172.8179+1241.5106j; 
     nominal_voltage 7200; 
     load_class C; 
} 

object load:363
{ 
     name R3-12-47-2_load_50; 
     parent R3-12-47-2_meter_50; 
     phases ABCN; 
     voltage_A 7200+0.0j; 
     voltage_B -3600-6235j; 
     voltage_C -3600+6235j; 
     constant_power_A 20520.7523+6122.5077j; 
     constant_power_B 21450.7435+6356.4543j; 
     constant_power_C 20864.0894+6207.5532j; 
     nominal_voltage 7200; 
     load_class C; 
} 

object load:364
{ 
     name R3-12-47-2_load_51; 
     parent R3-12-47-2_meter_51; 
     phases ABCN; 
     voltage_A 7200+0.0j; 
     voltage_B -3600-6235j; 
     voltage_C -3600+6235j; 
     constant_power_A 6156.2257+1836.7523j; 
     constant_power_B 6435.223+1906.9363j; 
     constant_power_C 6259.2268+1862.266j; 
     nominal_voltage 7200; 
     load_class C; 
} 

object load:365
{ 
     name R3-12-47-2_load_52; 
     parent R3-12-47-2_meter_52; 
     phases ABCN; 
     voltage_A 7200+0.0j; 
     voltage_B -3600-6235j; 
     voltage_C -3600+6235j; 
     constant_power_A 10260.3762+3061.2538j; 
     constant_power_B 10725.3717+3178.2272j; 
     constant_power_C 10432.0447+3103.7766j; 
     nominal_voltage 7200; 
     load_class C; 
} 

object load:366
{ 
     name R3-12-47-2_load_53; 
     parent R3-12-47-2_meter_53; 
     phases ABCN; 
     voltage_A 7200+0.0j; 
     voltage_B -3600-6235j; 
     voltage_C -3600+6235j; 
     constant_power_A 20520.7523+6122.5077j; 
     constant_power_B 21450.7435+6356.4543j; 
     constant_power_C 20864.0894+6207.5532j; 
     nominal_voltage 7200; 
     load_class C; 
} 

object load:367
{ 
     name R3-12-47-2_load_54; 
     parent R3-12-47-2_meter_54; 
     phases ABCN; 
     voltage_A 7200+0.0j; 
     voltage_B -3600-6235j; 
     voltage_C -3600+6235j; 
     constant_power_A 6156.2257+1836.7523j; 
     constant_power_B 6435.223+1906.9363j; 
     constant_power_C 6259.2268+1862.266j; 
     nominal_voltage 7200; 
     load_class C; 
} 

object load:368
{ 
     name R3-12-47-2_load_55; 
     parent R3-12-47-2_meter_55; 
     phases ABCN; 
     voltage_A 7200+0.0j; 
     voltage_B -3600-6235j; 
     voltage_C -3600+6235j; 
     constant_power_A 68402.5077+20408.3589j; 
     constant_power_B 71502.4783+21188.1812j; 
     constant_power_C 69546.9647+20691.8439j; 
     nominal_voltage 7200; 
     load_class C; 
} 

object load:369
{ 
     name R3-12-47-2_load_56; 
     parent R3-12-47-2_meter_56; 
     phases ABCN; 
     voltage_A 7200+0.0j; 
     voltage_B -3600-6235j; 
     voltage_C -3600+6235j; 
     constant_power_A 68402.5077+20408.3589j; 
     constant_power_B 71502.4783+21188.1812j; 
     constant_power_C 69546.9647+20691.8439j; 
     nominal_voltage 7200; 
     load_class C; 
} 

object load:370
{ 
     name R3-12-47-2_load_57; 
     parent R3-12-47-2_meter_57; 
     phases ABCN; 
     voltage_A 7200+0.0j; 
     voltage_B -3600-6235j; 
     voltage_C -3600+6235j; 
     constant_power_A 205207.5232+61225.0768j; 
     constant_power_B 214507.4348+63564.5435j; 
     constant_power_C 208640.8941+62075.5318j; 
     nominal_voltage 7200; 
     load_class C; 
} 

object load:371
{ 
     name R3-12-47-2_load_58; 
     parent R3-12-47-2_meter_58; 
     phases ABCN; 
     voltage_A 7200+0.0j; 
     voltage_B -3600-6235j; 
     voltage_C -3600+6235j; 
     constant_power_A 205207.5232+61225.0768j; 
     constant_power_B 214507.4348+63564.5435j; 
     constant_power_C 208640.8941+62075.5318j; 
     nominal_voltage 7200; 
     load_class C; 
} 

object load:372
{ 
     name R3-12-47-2_load_59; 
     parent R3-12-47-2_meter_59; 
     phases ABCN; 
     voltage_A 7200+0.0j; 
     voltage_B -3600-6235j; 
     voltage_C -3600+6235j; 
     constant_power_A 10260.3762+3061.2538j; 
     constant_power_B 10725.3717+3178.2272j; 
     constant_power_C 10432.0447+3103.7766j; 
     nominal_voltage 7200; 
     load_class C; 
} 

object load:373
{ 
     name R3-12-47-2_load_60; 
     parent R3-12-47-2_meter_60; 
     phases ABCN; 
     voltage_A 7200+0.0j; 
     voltage_B -3600-6235j; 
     voltage_C -3600+6235j; 
     constant_power_A 102603.7616+30612.5384j; 
     constant_power_B 107253.7174+31782.2717j; 
     constant_power_C 104320.4471+31037.7659j; 
     nominal_voltage 7200; 
     load_class C; 
} 

object load:374
{ 
     name R3-12-47-2_load_61; 
     parent R3-12-47-2_meter_61; 
     phases ABCN; 
     voltage_A 7200+0.0j; 
     voltage_B -3600-6235j; 
     voltage_C -3600+6235j; 
     constant_power_A 68402.5077+20408.3589j; 
     constant_power_B 71502.4783+21188.1812j; 
     constant_power_C 69546.9647+20691.8439j; 
     nominal_voltage 7200; 
     load_class C; 
} 

object load:375
{ 
     name R3-12-47-2_load_62; 
     parent R3-12-47-2_meter_62; 
     phases ABCN; 
     voltage_A 7200+0.0j; 
     voltage_B -3600-6235j; 
     voltage_C -3600+6235j; 
     constant_power_A 10260.3762+3061.2538j; 
     constant_power_B 10725.3717+3178.2272j; 
     constant_power_C 10432.0447+3103.7766j; 
     nominal_voltage 7200; 
     load_class C; 
} 

object meter:376
{ 
     name R3-12-47-2_meter_1; 
     phases BN; 
     voltage_B -3600-6235j; 
     nominal_voltage 7200; 
} 

object meter:377
{ 
     name R3-12-47-2_meter_2; 
     phases AN; 
     voltage_A 7200+0.0j; 
     nominal_voltage 7200; 
} 

object meter:378
{ 
     name R3-12-47-2_meter_3; 
     phases AN; 
     voltage_A 7200+0.0j; 
     nominal_voltage 7200; 
} 

object meter:379
{ 
     name R3-12-47-2_meter_4; 
     phases BN; 
     voltage_B -3600-6235j; 
     nominal_voltage 7200; 
} 

object meter:380
{ 
     name R3-12-47-2_meter_5; 
     phases BN; 
     voltage_B -3600-6235j; 
     nominal_voltage 7200; 
} 

object meter:381
{ 
     name R3-12-47-2_meter_6; 
     phases AN; 
     voltage_A 7200+0.0j; 
     nominal_voltage 7200; 
} 

object meter:382
{ 
     name R3-12-47-2_meter_7; 
     phases AN; 
     voltage_A 7200+0.0j; 
     nominal_voltage 7200; 
} 

object meter:383
{ 
     name R3-12-47-2_meter_8; 
     phases BN; 
     voltage_B -3600-6235j; 
     nominal_voltage 7200; 
} 

object meter:384
{ 
     name R3-12-47-2_meter_9; 
     phases ABCN; 
     voltage_A 7200+0.0j; 
     voltage_B -3600-6235j; 
     voltage_C -3600+6235j; 
     nominal_voltage 7200; 
} 

object meter:385
{ 
     name R3-12-47-2_meter_10; 
     phases ABN; 
     voltage_A 7200+0.0j; 
     voltage_B -3600-6235j; 
     nominal_voltage 7200; 
} 

object meter:386
{ 
     name R3-12-47-2_meter_11; 
     phases AN; 
     voltage_A 7200+0.0j; 
     nominal_voltage 7200; 
} 

object meter:387
{ 
     name R3-12-47-2_meter_12; 
     phases ABN; 
     voltage_A 7200+0.0j; 
     voltage_B -3600-6235j; 
     nominal_voltage 7200; 
} 

object meter:388
{ 
     name R3-12-47-2_meter_13; 
     phases AN; 
     voltage_A 7200+0.0j; 
     nominal_voltage 7200; 
} 

object meter:389
{ 
     name R3-12-47-2_meter_14; 
     phases ABCN; 
     voltage_A 7200+0.0j; 
     voltage_B -3600-6235j; 
     voltage_C -3600+6235j; 
     nominal_voltage 7200;
} 

object meter:390
{ 
     name R3-12-47-2_meter_15; 
     phases ABCN; 
     voltage_A 7200+0.0j; 
     voltage_B -3600-6235j; 
     voltage_C -3600+6235j; 
     nominal_voltage 7200; 
} 

object meter:391
{ 
     name R3-12-47-2_meter_16; 
     phases BN; 
     voltage_B -3600-6235j; 
     nominal_voltage 7200; 
} 

object meter:392
{ 
     name R3-12-47-2_meter_17; 
     phases ABCN; 
     voltage_A 7200+0.0j; 
     voltage_B -3600-6235j; 
     voltage_C -3600+6235j; 
     nominal_voltage 7200; 
} 

object meter:393
{ 
     name R3-12-47-2_meter_18; 
     phases ABCN; 
     voltage_A 7200+0.0j; 
     voltage_B -3600-6235j; 
     voltage_C -3600+6235j; 
     nominal_voltage 7200; 
} 

object meter:394
{ 
     name R3-12-47-2_meter_19; 
     phases ABCN; 
     voltage_A 7200+0.0j; 
     voltage_B -3600-6235j; 
     voltage_C -3600+6235j; 
     nominal_voltage 7200; 
} 

object meter:395
{ 
     name R3-12-47-2_meter_20; 
     phases ABCN; 
     voltage_A 7200+0.0j; 
     voltage_B -3600-6235j; 
     voltage_C -3600+6235j; 
     nominal_voltage 7200; 
} 

object meter:396
{ 
     name R3-12-47-2_meter_21; 
     phases BN; 
     voltage_B -3600-6235j; 
     nominal_voltage 7200; 
} 

object meter:397
{ 
     name R3-12-47-2_meter_22; 
     phases CN; 
     voltage_C -3600+6235j; 
     nominal_voltage 7200; 
} 

object meter:398
{ 
     name R3-12-47-2_meter_23; 
     phases CN; 
     voltage_C -3600+6235j; 
     nominal_voltage 7200; 
} 

object meter:399
{ 
     name R3-12-47-2_meter_24; 
     phases ABCN; 
     voltage_A 7200+0.0j; 
     voltage_B -3600-6235j; 
     voltage_C -3600+6235j; 
     nominal_voltage 7200; 
} 

object meter:400
{ 
     name R3-12-47-2_meter_25; 
     phases ABCN; 
     voltage_A 7200+0.0j; 
     voltage_B -3600-6235j; 
     voltage_C -3600+6235j; 
     nominal_voltage 7200; 
} 

object meter:401
{ 
     name R3-12-47-2_meter_26; 
     phases AN; 
     voltage_A 7200+0.0j; 
     nominal_voltage 7200; 
} 

object meter:402
{ 
     name R3-12-47-2_meter_27; 
     phases ABCN; 
     voltage_A 7200+0.0j; 
     voltage_B -3600-6235j; 
     voltage_C -3600+6235j; 
     nominal_voltage 7200; 
} 

object meter:403
{ 
     name R3-12-47-2_meter_28; 
     phases ABCN; 
     voltage_A 7200+0.0j; 
     voltage_B -3600-6235j; 
     voltage_C -3600+6235j; 
     nominal_voltage 7200; 
} 

object meter:404
{ 
     name R3-12-47-2_meter_29; 
     phases ABCN; 
     voltage_A 7200+0.0j; 
     voltage_B -3600-6235j; 
     voltage_C -3600+6235j; 
     nominal_voltage 7200; 
} 

object meter:405
{ 
     name R3-12-47-2_meter_30; 
     phases AN; 
     voltage_A 7200+0.0j; 
     nominal_voltage 7200; 
} 

object meter:406
{ 
     name R3-12-47-2_meter_31; 
     phases ABCN; 
     voltage_A 7200+0.0j; 
     voltage_B -3600-6235j; 
     voltage_C -3600+6235j; 
     nominal_voltage 7200; 
} 

object meter:407
{ 
     name R3-12-47-2_meter_32; 
     phases ABCN; 
     voltage_A 7200+0.0j; 
     voltage_B -3600-6235j; 
     voltage_C -3600+6235j; 
     nominal_voltage 7200; 
} 

object meter:408
{ 
     name R3-12-47-2_meter_33; 
     phases AN; 
     voltage_A 7200+0.0j; 
     nominal_voltage 7200; 
} 

object meter:409
{ 
     name R3-12-47-2_meter_34; 
     phases ABCN; 
     voltage_A 7200+0.0j; 
     voltage_B -3600-6235j; 
     voltage_C -3600+6235j; 
     nominal_voltage 7200; 
} 

object meter:410
{ 
     name R3-12-47-2_meter_35; 
     phases CN; 
     voltage_C -3600+6235j; 
     nominal_voltage 7200; 
} 

object meter:411
{ 
     name R3-12-47-2_meter_36; 
     phases CN; 
     voltage_C -3600+6235j; 
     nominal_voltage 7200;
} 

object meter:412
{ 
     name R3-12-47-2_meter_37; 
     phases ABCN; 
     voltage_A 7200+0.0j; 
     voltage_B -3600-6235j; 
     voltage_C -3600+6235j; 
     nominal_voltage 7200; 
} 

object meter:413
{ 
     name R3-12-47-2_meter_38; 
     phases BN; 
     voltage_B -3600-6235j; 
     nominal_voltage 7200; 
} 

object meter:414
{ 
     name R3-12-47-2_meter_39; 
     phases ABCN; 
     voltage_A 7200+0.0j; 
     voltage_B -3600-6235j; 
     voltage_C -3600+6235j; 
     nominal_voltage 7200; 
} 

object meter:415
{ 
     name R3-12-47-2_meter_40; 
     phases BN; 
     voltage_B -3600-6235j; 
     nominal_voltage 7200; 
} 

object meter:416
{ 
     name R3-12-47-2_meter_41; 
     phases ABCN; 
     voltage_A 7200+0.0j; 
     voltage_B -3600-6235j; 
     voltage_C -3600+6235j; 
     nominal_voltage 7200; 
} 

object meter:417
{ 
     name R3-12-47-2_meter_42; 
     phases BN; 
     voltage_B -3600-6235j; 
     nominal_voltage 7200; 
} 

object meter:418
{ 
     name R3-12-47-2_meter_43; 
     phases ABCN; 
     voltage_A 7200+0.0j; 
     voltage_B -3600-6235j; 
     voltage_C -3600+6235j; 
     nominal_voltage 7200; 
} 

object meter:419
{ 
     name R3-12-47-2_meter_44; 
     phases BN; 
     voltage_B -3600-6235j; 
     nominal_voltage 7200; 
} 

object meter:420
{ 
     name R3-12-47-2_meter_45; 
     phases ABCN; 
     voltage_A 7200+0.0j; 
     voltage_B -3600-6235j; 
     voltage_C -3600+6235j; 
     nominal_voltage 7200; 
} 

object meter:421
{ 
     name R3-12-47-2_meter_46; 
     phases ABCN; 
     voltage_A 7200+0.0j; 
     voltage_B -3600-6235j; 
     voltage_C -3600+6235j; 
     nominal_voltage 7200; 
} 

object meter:422
{ 
     name R3-12-47-2_meter_47; 
     phases ABCN; 
     voltage_A 7200+0.0j; 
     voltage_B -3600-6235j; 
     voltage_C -3600+6235j; 
     nominal_voltage 7200; 
} 

object meter:423
{ 
     name R3-12-47-2_meter_48; 
     phases AN; 
     voltage_A 7200+0.0j; 
     nominal_voltage 7200; 
} 

object meter:424
{ 
     name R3-12-47-2_meter_49; 
     phases ABCN; 
     voltage_A 7200+0.0j; 
     voltage_B -3600-6235j; 
     voltage_C -3600+6235j; 
     nominal_voltage 7200; 
} 

object meter:425
{ 
     name R3-12-47-2_meter_50; 
     phases ABCN; 
     voltage_A 7200+0.0j; 
     voltage_B -3600-6235j; 
     voltage_C -3600+6235j; 
     nominal_voltage 7200; 
} 

object meter:426
{ 
     name R3-12-47-2_meter_51; 
     phases ABCN; 
     voltage_A 7200+0.0j; 
     voltage_B -3600-6235j; 
     voltage_C -3600+6235j; 
     nominal_voltage 7200; 
} 

object meter:427
{ 
     name R3-12-47-2_meter_52; 
     phases ABCN; 
     voltage_A 7200+0.0j; 
     voltage_B -3600-6235j; 
     voltage_C -3600+6235j; 
     nominal_voltage 7200; 
} 

object meter:428
{ 
     name R3-12-47-2_meter_53; 
     phases ABCN; 
     voltage_A 7200+0.0j; 
     voltage_B -3600-6235j; 
     voltage_C -3600+6235j; 
     nominal_voltage 7200; 
} 

object meter:429
{ 
     name R3-12-47-2_meter_54; 
     phases ABCN; 
     voltage_A 7200+0.0j; 
     voltage_B -3600-6235j; 
     voltage_C -3600+6235j; 
     nominal_voltage 7200; 
} 

object meter:430
{ 
     name R3-12-47-2_meter_55; 
     phases ABCN; 
     voltage_A 7200+0.0j; 
     voltage_B -3600-6235j; 
     voltage_C -3600+6235j; 
     nominal_voltage 7200; 
} 

object meter:431
{ 
     name R3-12-47-2_meter_56; 
     phases ABCN; 
     voltage_A 7200+0.0j; 
     voltage_B -3600-6235j; 
     voltage_C -3600+6235j; 
     nominal_voltage 7200; 
} 

object meter:432
{ 
     name R3-12-47-2_meter_57; 
     phases ABCN; 
     voltage_A 7200+0.0j; 
     voltage_B -3600-6235j; 
     voltage_C -3600+6235j; 
     nominal_voltage 7200; 
} 

object meter:433
{ 
     name R3-12-47-2_meter_58; 
     phases ABCN; 
     voltage_A 7200+0.0j; 
     voltage_B -3600-6235j; 
     voltage_C -3600+6235j; 
     nominal_voltage 7200; 
} 

object meter:434
{ 
     name R3-12-47-2_meter_59; 
     phases ABCN; 
     voltage_A 7200+0.0j; 
     voltage_B -3600-6235j; 
     voltage_C -3600+6235j; 
     nominal_voltage 7200; 
} 

object meter:435
{ 
     name R3-12-47-2_meter_60; 
     phases ABCN; 
     voltage_A 7200+0.0j; 
     voltage_B -3600-6235j; 
     voltage_C -3600+6235j; 
     nominal_voltage 7200;
} 

object meter:436
{ 
     name R3-12-47-2_meter_61; 
     phases ABCN; 
     voltage_A 7200+0.0j; 
     voltage_B -3600-6235j; 
     voltage_C -3600+6235j; 
     nominal_voltage 7200; 
} 

object meter:437
{ 
     name R3-12-47-2_meter_62; 
     phases ABCN; 
     voltage_A 7200+0.0j; 
     voltage_B -3600-6235j; 
     voltage_C -3600+6235j; 
     nominal_voltage 7200; 
} 

// Meter at feeder 
object meter:784
{ 
     name R3-12-47-2_meter_63; 
     phases ABCN; 
     nominal_voltage 7200; 
     voltage_A 7200+0.0j; 
     voltage_B -3600-6235j; 
     voltage_C -3600+6235j; 
} 

object node:48
{ 
     name R3-12-47-2_node_1; 
     parent R3-12-47-2_meter_63; 
     phases ABCN; 
     voltage_A 7200+0.0j; 
     voltage_B -3600-6235j; 
     voltage_C -3600+6235j; 
     nominal_voltage 7200; 
} 

object node:49
{ 
     name R3-12-47-2_node_2; 
     phases ABCN; 
     voltage_A 7200+0.0j; 
     voltage_B -3600-6235j; 
     voltage_C -3600+6235j; 
     nominal_voltage 7200; 
} 

object node:50
{ 
     name R3-12-47-2_node_3; 
     phases ABCN; 
     voltage_A 7200+0.0j; 
     voltage_B -3600-6235j; 
     voltage_C -3600+6235j; 
     nominal_voltage 7200; 
} 

object node:51
{ 
     name R3-12-47-2_node_4; 
     phases ABCN; 
     voltage_A 7200+0.0j; 
     voltage_B -3600-6235j; 
     voltage_C -3600+6235j; 
     nominal_voltage 7200; 
} 

object node:52
{ 
     name R3-12-47-2_node_5; 
     phases ABCN; 
     voltage_A 7200+0.0j; 
     voltage_B -3600-6235j; 
     voltage_C -3600+6235j; 
     nominal_voltage 7200; 
} 

object node:53
{ 
     name R3-12-47-2_node_6; 
     phases ABCN; 
     voltage_A 7200+0.0j; 
     voltage_B -3600-6235j; 
     voltage_C -3600+6235j; 
     nominal_voltage 7200; 
} 

object node:54
{ 
     name R3-12-47-2_node_7; 
     phases ABCN; 
     voltage_A 7200+0.0j; 
     voltage_B -3600-6235j; 
     voltage_C -3600+6235j; 
     nominal_voltage 7200; 
} 

object node:55
{ 
     name R3-12-47-2_node_8; 
     phases ABCN; 
     voltage_A 7200+0.0j; 
     voltage_B -3600-6235j; 
     voltage_C -3600+6235j; 
     nominal_voltage 7200; 
} 

object node:56
{ 
     name R3-12-47-2_node_9; 
     phases BN; 
     voltage_B -3600-6235j; 
     nominal_voltage 7200; 
} 

object node:57
{ 
     name R3-12-47-2_node_10; 
     phases ABCN; 
     voltage_A 7200+0.0j; 
     voltage_B -3600-6235j; 
     voltage_C -3600+6235j; 
     nominal_voltage 7200; 
} 

object node:58
{ 
     name R3-12-47-2_node_11; 
     phases AN; 
     voltage_A 7200+0.0j; 
     nominal_voltage 7200; 
} 

object node:59
{ 
     name R3-12-47-2_node_12; 
     phases BN; 
     voltage_B -3600-6235j; 
     nominal_voltage 7200; 
} 

object node:60
{ 
     name R3-12-47-2_node_13; 
     phases ABCN; 
     voltage_A 7200+0.0j; 
     voltage_B -3600-6235j; 
     voltage_C -3600+6235j; 
     nominal_voltage 7200; 
} 

object node:61
{ 
     name R3-12-47-2_node_14; 
     phases ABCN; 
     voltage_A 7200+0.0j; 
     voltage_B -3600-6235j; 
     voltage_C -3600+6235j; 
     nominal_voltage 7200; 
} 

object node:62
{ 
     name R3-12-47-2_node_15; 
     phases AN; 
     voltage_A 7200+0.0j; 
     nominal_voltage 7200; 
} 

object node:63
{ 
     name R3-12-47-2_node_16; 
     phases ABCN; 
     voltage_A 7200+0.0j; 
     voltage_B -3600-6235j; 
     voltage_C -3600+6235j; 
     nominal_voltage 7200; 
} 

object node:64
{ 
     name R3-12-47-2_node_17; 
     phases CN; 
     voltage_C -3600+6235j; 
     nominal_voltage 7200; 
} 

object node:65
{ 
     name R3-12-47-2_node_18; 
     phases ABCN; 
     voltage_A 7200+0.0j; 
     voltage_B -3600-6235j; 
     voltage_C -3600+6235j; 
     nominal_voltage 7200; 
} 

object node:66
{ 
     name R3-12-47-2_node_19; 
     phases BN; 
     voltage_B -3600-6235j; 
     nominal_voltage 7200; 
} 

object node:67
{ 
     name R3-12-47-2_node_20; 
     phases ABCN; 
     voltage_A 7200+0.0j; 
     voltage_B -3600-6235j; 
     voltage_C -3600+6235j; 
     nominal_voltage 7200; 
} 

object node:68
{ 
     name R3-12-47-2_node_21; 
     phases BN; 
     voltage_B -3600-6235j; 
     nominal_voltage 7200; 
} 

object node:69
{ 
     name R3-12-47-2_node_22; 
     phases ABCN; 
     voltage_A 7200+0.0j; 
     voltage_B -3600-6235j; 
     voltage_C -3600+6235j; 
     nominal_voltage 7200; 
} 

object node:70
{ 
     name R3-12-47-2_node_23; 
     phases BN; 
     voltage_B -3600-6235j; 
     nominal_voltage 7200; 
} 

object node:71
{ 
     name R3-12-47-2_node_24; 
     phases ABCN; 
     voltage_A 7200+0.0j; 
     voltage_B -3600-6235j; 
     voltage_C -3600+6235j; 
     nominal_voltage 7200; 
} 

object node:72
{ 
     name R3-12-47-2_node_25; 
     phases ABCN; 
     voltage_A 7200+0.0j; 
     voltage_B -3600-6235j; 
     voltage_C -3600+6235j; 
     nominal_voltage 7200; 
} 

object node:73
{ 
     name R3-12-47-2_node_26; 
     phases BN; 
     voltage_B -3600-6235j; 
     nominal_voltage 7200; 
} 

object node:74
{ 
     name R3-12-47-2_node_27; 
     phases ABCN; 
     voltage_A 7200+0.0j; 
     voltage_B -3600-6235j; 
     voltage_C -3600+6235j; 
     nominal_voltage 7200; 
} 

object node:75
{ 
     name R3-12-47-2_node_28; 
     phases AN; 
     voltage_A 7200+0.0j; 
     nominal_voltage 7200; 
} 

object node:76
{ 
     name R3-12-47-2_node_29; 
     phases ABCN; 
     voltage_A 7200+0.0j; 
     voltage_B -3600-6235j; 
     voltage_C -3600+6235j; 
     nominal_voltage 7200; 
} 

object node:77
{ 
     name R3-12-47-2_node_30; 
     phases ABCN; 
     voltage_A 7200+0.0j; 
     voltage_B -3600-6235j; 
     voltage_C -3600+6235j; 
     nominal_voltage 7200; 
} 

object node:78
{ 
     name R3-12-47-2_node_31; 
     phases ABCN; 
     voltage_A 7200+0.0j; 
     voltage_B -3600-6235j; 
     voltage_C -3600+6235j; 
     nominal_voltage 7200; 
} 

object node:79
{ 
     name R3-12-47-2_node_32; 
     phases ABCN; 
     voltage_A 7200+0.0j; 
     voltage_B -3600-6235j; 
     voltage_C -3600+6235j; 
     nominal_voltage 7200; 
} 

object node:80
{ 
     name R3-12-47-2_node_33; 
     phases ABCN; 
     voltage_A 7200+0.0j; 
     voltage_B -3600-6235j; 
     voltage_C -3600+6235j; 
     nominal_voltage 7200; 
} 

object node:81
{ 
     name R3-12-47-2_node_34; 
     phases ABCN; 
     voltage_A 7200+0.0j; 
     voltage_B -3600-6235j; 
     voltage_C -3600+6235j; 
     nominal_voltage 7200; 
} 

object node:82
{ 
     name R3-12-47-2_node_35; 
     phases ABCN; 
     voltage_A 7200+0.0j; 
     voltage_B -3600-6235j; 
     voltage_C -3600+6235j; 
     nominal_voltage 7200; 
} 

object node:83
{ 
     name R3-12-47-2_node_36; 
     phases ABCN; 
     voltage_A 7200+0.0j; 
     voltage_B -3600-6235j; 
     voltage_C -3600+6235j; 
     nominal_voltage 7200; 
} 

object node:84
{ 
     name R3-12-47-2_node_37; 
     phases ABCN; 
     voltage_A 7200+0.0j; 
     voltage_B -3600-6235j; 
     voltage_C -3600+6235j; 
     nominal_voltage 7200; 
} 

object node:85
{ 
     name R3-12-47-2_node_38; 
     phases ABCN; 
     voltage_A 7200+0.0j; 
     voltage_B -3600-6235j; 
     voltage_C -3600+6235j; 
     nominal_voltage 7200; 
} 

object node:86
{ 
     name R3-12-47-2_node_39; 
     phases BN; 
     voltage_B -3600-6235j; 
     nominal_voltage 7200; 
} 

object node:87
{ 
     name R3-12-47-2_node_40; 
     phases AN; 
     voltage_A 7200+0.0j; 
     nominal_voltage 7200; 
} 

object node:88
{ 
     name R3-12-47-2_node_41; 
     phases AN; 
     voltage_A 7200+0.0j; 
     nominal_voltage 7200; 
} 

object node:89
{ 
     name R3-12-47-2_node_42; 
     phases CN; 
     voltage_C -3600+6235j; 
     nominal_voltage 7200; 
} 

object node:90
{ 
     name R3-12-47-2_node_43; 
     phases ABCN; 
     voltage_A 7200+0.0j; 
     voltage_B -3600-6235j; 
     voltage_C -3600+6235j; 
     nominal_voltage 7200; 
} 

object node:91
{ 
     name R3-12-47-2_node_44; 
     phases ABCN; 
     voltage_A 7200+0.0j; 
     voltage_B -3600-6235j; 
     voltage_C -3600+6235j; 
     nominal_voltage 7200; 
} 

object node:92
{ 
     name R3-12-47-2_node_45; 
     phases ABCN; 
     voltage_A 7200+0.0j; 
     voltage_B -3600-6235j; 
     voltage_C -3600+6235j; 
     nominal_voltage 7200; 
} 

object node:93
{ 
     name R3-12-47-2_node_46; 
     phases ABCN; 
     voltage_A 7200+0.0j; 
     voltage_B -3600-6235j; 
     voltage_C -3600+6235j; 
     nominal_voltage 7200; 
} 

object node:94
{ 
     name R3-12-47-2_node_47; 
     phases ABCN; 
     voltage_A 7200+0.0j; 
     voltage_B -3600-6235j; 
     voltage_C -3600+6235j; 
     nominal_voltage 7200; 
} 

object node:95
{ 
     name R3-12-47-2_node_48; 
     phases ABCN; 
     voltage_A 7200+0.0j; 
     voltage_B -3600-6235j; 
     voltage_C -3600+6235j; 
     nominal_voltage 7200; 
} 

object node:96
{ 
     name R3-12-47-2_node_49; 
     phases ABCN; 
     voltage_A 7200+0.0j; 
     voltage_B -3600-6235j; 
     voltage_C -3600+6235j; 
     nominal_voltage 7200; 
} 

object node:97
{ 
     name R3-12-47-2_node_50; 
     phases AN; 
     voltage_A 7200+0.0j; 
     nominal_voltage 7200; 
} 

object node:98
{ 
     name R3-12-47-2_node_51; 
     phases CN; 
     voltage_C -3600+6235j; 
     nominal_voltage 7200; 
} 

object node:99
{ 
     name R3-12-47-2_node_52; 
     phases AN; 
     voltage_A 7200+0.0j; 
     nominal_voltage 7200; 
} 

object node:100
{ 
     name R3-12-47-2_node_53; 
     phases AN; 
     voltage_A 7200+0.0j; 
     nominal_voltage 7200; 
} 

object node:101
{ 
     name R3-12-47-2_node_54; 
     phases BN; 
     voltage_B -3600-6235j; 
     nominal_voltage 7200; 
} 

object node:102
{ 
     name R3-12-47-2_node_55; 
     phases ABCN; 
     voltage_A 7200+0.0j; 
     voltage_B -3600-6235j; 
     voltage_C -3600+6235j; 
     nominal_voltage 7200; 
} 

object node:103
{ 
     name R3-12-47-2_node_56; 
     phases ABN; 
     voltage_A 7200+0.0j; 
     voltage_B -3600-6235j; 
     nominal_voltage 7200; 
} 

object node:104
{ 
     name R3-12-47-2_node_57; 
     phases AN; 
     voltage_A 7200+0.0j; 
     nominal_voltage 7200; 
} 

object node:105
{ 
     name R3-12-47-2_node_58; 
     phases ABN; 
     voltage_A 7200+0.0j; 
     voltage_B -3600-6235j; 
     nominal_voltage 7200; 
} 

object node:106
{ 
     name R3-12-47-2_node_59; 
     phases ABCN; 
     voltage_A 7200+0.0j; 
     voltage_B -3600-6235j; 
     voltage_C -3600+6235j; 
     nominal_voltage 7200; 
} 

object node:107
{ 
     name R3-12-47-2_node_60; 
     phases CN; 
     voltage_C -3600+6235j; 
     nominal_voltage 7200; 
} 

object node:108
{ 
     name R3-12-47-2_node_61; 
     phases ABCN; 
     voltage_A 7200+0.0j; 
     voltage_B -3600-6235j; 
     voltage_C -3600+6235j; 
     nominal_voltage 7200; 
} 

object node:109
{ 
     name R3-12-47-2_node_62; 
     phases BN; 
     voltage_B -3600-6235j; 
     nominal_voltage 7200; 
} 

object node:110
{ 
     name R3-12-47-2_node_63; 
     phases ABCN; 
     voltage_A 7200+0.0j; 
     voltage_B -3600-6235j; 
     voltage_C -3600+6235j; 
     nominal_voltage 7200; 
} 

object node:111
{ 
     name R3-12-47-2_node_64; 
     phases ABCN; 
     voltage_A 7200+0.0j; 
     voltage_B -3600-6235j; 
     voltage_C -3600+6235j; 
     nominal_voltage 7200; 
} 

object node:112
{ 
     name R3-12-47-2_node_65; 
     phases ABCN; 
     voltage_A 7200+0.0j; 
     voltage_B -3600-6235j; 
     voltage_C -3600+6235j; 
     nominal_voltage 7200; 
} 

object node:113
{ 
     name R3-12-47-2_node_66; 
     phases ABCN; 
     voltage_A 7200+0.0j; 
     voltage_B -3600-6235j; 
     voltage_C -3600+6235j; 
     nominal_voltage 7200; 
} 

object node:114
{ 
     name R3-12-47-2_node_67; 
     phases BN; 
     voltage_B -3600-6235j; 
     nominal_voltage 7200; 
} 

object node:115
{ 
     name R3-12-47-2_node_68; 
     phases ABCN; 
     voltage_A 7200+0.0j; 
     voltage_B -3600-6235j; 
     voltage_C -3600+6235j; 
     nominal_voltage 7200; 
} 

object node:116
{ 
     name R3-12-47-2_node_69; 
     phases ABCN; 
     voltage_A 7200+0.0j; 
     voltage_B -3600-6235j; 
     voltage_C -3600+6235j; 
     nominal_voltage 7200; 
} 

object node:117
{ 
     name R3-12-47-2_node_70; 
     phases AN; 
     voltage_A 7200+0.0j; 
     nominal_voltage 7200; 
} 

object node:118
{ 
     name R3-12-47-2_node_71; 
     phases BN; 
     voltage_B -3600-6235j; 
     nominal_voltage 7200; 
} 

object node:119
{ 
     name R3-12-47-2_node_72; 
     phases ABCN; 
     voltage_A 7200+0.0j; 
     voltage_B -3600-6235j; 
     voltage_C -3600+6235j; 
     nominal_voltage 7200; 
} 

object node:120
{ 
     name R3-12-47-2_node_73; 
     phases ABCN; 
     voltage_A 7200+0.0j; 
     voltage_B -3600-6235j; 
     voltage_C -3600+6235j; 
     nominal_voltage 7200; 
} 

object node:121
{ 
     name R3-12-47-2_node_74; 
     phases ABCN; 
     voltage_A 7200+0.0j; 
     voltage_B -3600-6235j; 
     voltage_C -3600+6235j; 
     nominal_voltage 7200; 
} 

object node:122
{ 
     name R3-12-47-2_node_75; 
     phases ABCN; 
     voltage_A 7200+0.0j; 
     voltage_B -3600-6235j; 
     voltage_C -3600+6235j; 
     nominal_voltage 7200; 
} 

object node:123
{ 
     name R3-12-47-2_node_76; 
     phases ABCN; 
     voltage_A 7200+0.0j; 
     voltage_B -3600-6235j; 
     voltage_C -3600+6235j; 
     nominal_voltage 7200; 
} 

object node:124
{ 
     name R3-12-47-2_node_77; 
     phases ABCN; 
     voltage_A 7200+0.0j; 
     voltage_B -3600-6235j; 
     voltage_C -3600+6235j; 
     nominal_voltage 7200; 
} 

object node:125
{ 
     name R3-12-47-2_node_78; 
     phases ABCN; 
     voltage_A 7200+0.0j; 
     voltage_B -3600-6235j; 
     voltage_C -3600+6235j; 
     nominal_voltage 7200; 
} 

object node:126
{ 
     name R3-12-47-2_node_79; 
     phases ABCN; 
     voltage_A 7200+0.0j; 
     voltage_B -3600-6235j; 
     voltage_C -3600+6235j; 
     nominal_voltage 7200; 
} 

object node:127
{ 
     name R3-12-47-2_node_80; 
     phases BN; 
     voltage_B -3600-6235j; 
     nominal_voltage 7200; 
} 

object node:128
{ 
     name R3-12-47-2_node_81; 
     phases ABCN; 
     voltage_A 7200+0.0j; 
     voltage_B -3600-6235j; 
     voltage_C -3600+6235j; 
     nominal_voltage 7200;
} 

object node:129
{ 
     name R3-12-47-2_node_82; 
     phases ABCN; 
     voltage_A 7200+0.0j; 
     voltage_B -3600-6235j; 
     voltage_C -3600+6235j; 
     nominal_voltage 7200; 
} 

object node:130
{ 
     name R3-12-47-2_node_83; 
     phases ABCN; 
     voltage_A 7200+0.0j; 
     voltage_B -3600-6235j; 
     voltage_C -3600+6235j; 
     nominal_voltage 7200; 
} 

object node:131
{ 
     name R3-12-47-2_node_84; 
     phases ABCN; 
     voltage_A 7200+0.0j; 
     voltage_B -3600-6235j; 
     voltage_C -3600+6235j; 
     nominal_voltage 7200; 
} 

object node:132
{ 
     name R3-12-47-2_node_85; 
     phases ABCN; 
     voltage_A 7200+0.0j; 
     voltage_B -3600-6235j; 
     voltage_C -3600+6235j; 
     nominal_voltage 7200; 
} 

object node:133
{ 
     name R3-12-47-2_node_86; 
     phases ABCN; 
     voltage_A 7200+0.0j; 
     voltage_B -3600-6235j; 
     voltage_C -3600+6235j; 
     nominal_voltage 7200; 
} 

object node:134
{ 
     name R3-12-47-2_node_87; 
     phases ABCN; 
     voltage_A 7200+0.0j; 
     voltage_B -3600-6235j; 
     voltage_C -3600+6235j; 
     nominal_voltage 7200; 
} 

object node:135
{ 
     name R3-12-47-2_node_88; 
     phases ABCN; 
     voltage_A 7200+0.0j; 
     voltage_B -3600-6235j; 
     voltage_C -3600+6235j; 
     nominal_voltage 7200; 
} 

object node:136
{ 
     name R3-12-47-2_node_89; 
     phases ABCN; 
     voltage_A 7200+0.0j; 
     voltage_B -3600-6235j; 
     voltage_C -3600+6235j; 
     nominal_voltage 7200; 
} 

object node:137
{ 
     name R3-12-47-2_node_90; 
     phases BN; 
     voltage_B -3600-6235j; 
     nominal_voltage 7200; 
} 

object node:138
{ 
     name R3-12-47-2_node_91; 
     phases ABCN; 
     voltage_A 7200+0.0j; 
     voltage_B -3600-6235j; 
     voltage_C -3600+6235j; 
     nominal_voltage 7200; 
} 

object node:139
{ 
     name R3-12-47-2_node_92; 
     phases ABCN; 
     voltage_A 7200+0.0j; 
     voltage_B -3600-6235j; 
     voltage_C -3600+6235j; 
     nominal_voltage 7200; 
} 

object node:140
{ 
     name R3-12-47-2_node_93; 
     phases ABCN; 
     voltage_A 7200+0.0j; 
     voltage_B -3600-6235j; 
     voltage_C -3600+6235j; 
     nominal_voltage 7200; 
} 

object node:141
{ 
     name R3-12-47-2_node_94; 
     phases ABCN; 
     voltage_A 7200+0.0j; 
     voltage_B -3600-6235j; 
     voltage_C -3600+6235j; 
     nominal_voltage 7200; 
} 

object node:142
{ 
     name R3-12-47-2_node_95; 
     phases BN; 
     voltage_B -3600-6235j; 
     nominal_voltage 7200; 
} 

object node:143
{ 
     name R3-12-47-2_node_96; 
     phases ABCN; 
     voltage_A 7200+0.0j; 
     voltage_B -3600-6235j; 
     voltage_C -3600+6235j; 
     nominal_voltage 7200; 
} 

object node:144
{ 
     name R3-12-47-2_node_97; 
     phases ABCN; 
     voltage_A 7200+0.0j; 
     voltage_B -3600-6235j; 
     voltage_C -3600+6235j; 
     nominal_voltage 7200; 
} 

object node:145
{ 
     name R3-12-47-2_node_98; 
     phases ABCN; 
     voltage_A 7200+0.0j; 
     voltage_B -3600-6235j; 
     voltage_C -3600+6235j; 
     nominal_voltage 7200; 
} 

object node:146
{ 
     name R3-12-47-2_node_99; 
     phases ABCN; 
     voltage_A 7200+0.0j; 
     voltage_B -3600-6235j; 
     voltage_C -3600+6235j; 
     nominal_voltage 7200; 
} 

object node:147
{ 
     name R3-12-47-2_node_100; 
     phases ABCN; 
     voltage_A 7200+0.0j; 
     voltage_B -3600-6235j; 
     voltage_C -3600+6235j; 
     nominal_voltage 7200; 
} 

object node:148
{ 
     name R3-12-47-2_node_101; 
     phases ABCN; 
     voltage_A 7200+0.0j; 
     voltage_B -3600-6235j; 
     voltage_C -3600+6235j; 
     nominal_voltage 7200; 
} 

object node:149
{ 
     name R3-12-47-2_node_102; 
     phases ABCN; 
     voltage_A 7200+0.0j; 
     voltage_B -3600-6235j; 
     voltage_C -3600+6235j; 
     nominal_voltage 7200; 
} 

object node:150
{ 
     name R3-12-47-2_node_103; 
     phases BN; 
     voltage_B -3600-6235j; 
     nominal_voltage 7200; 
} 

object node:151
{ 
     name R3-12-47-2_node_104; 
     phases BN; 
     voltage_B -3600-6235j; 
     nominal_voltage 7200; 
} 

object node:152
{ 
     name R3-12-47-2_node_105; 
     phases ABCN; 
     voltage_A 7200+0.0j; 
     voltage_B -3600-6235j; 
     voltage_C -3600+6235j; 
     nominal_voltage 7200; 
} 

object node:153
{ 
     name R3-12-47-2_node_106; 
     phases ABCN; 
     voltage_A 7200+0.0j; 
     voltage_B -3600-6235j; 
     voltage_C -3600+6235j; 
     nominal_voltage 7200; 
} 

object node:154
{ 
     name R3-12-47-2_node_107; 
     phases ABCN; 
     voltage_A 7200+0.0j; 
     voltage_B -3600-6235j; 
     voltage_C -3600+6235j; 
     nominal_voltage 7200; 
} 

object node:155
{ 
     name R3-12-47-2_node_108; 
     phases ABCN; 
     voltage_A 7200+0.0j; 
     voltage_B -3600-6235j; 
     voltage_C -3600+6235j; 
     nominal_voltage 7200; 
} 

object node:156
{ 
     name R3-12-47-2_node_109; 
     phases BN; 
     voltage_B -3600-6235j; 
     nominal_voltage 7200; 
} 

object node:157
{ 
     name R3-12-47-2_node_110; 
     phases ABCN; 
     voltage_A 7200+0.0j; 
     voltage_B -3600-6235j; 
     voltage_C -3600+6235j; 
     nominal_voltage 7200; 
} 

object node:158
{ 
     name R3-12-47-2_node_111; 
     phases ABCN; 
     voltage_A 7200+0.0j; 
     voltage_B -3600-6235j; 
     voltage_C -3600+6235j; 
     nominal_voltage 7200; 
} 

object node:159
{ 
     name R3-12-47-2_node_112; 
     phases ABCN; 
     voltage_A 7200+0.0j; 
     voltage_B -3600-6235j; 
     voltage_C -3600+6235j; 
     nominal_voltage 7200; 
} 

object node:160
{ 
     name R3-12-47-2_node_113; 
     phases ABCN; 
     voltage_A 7200+0.0j; 
     voltage_B -3600-6235j; 
     voltage_C -3600+6235j; 
     nominal_voltage 7200; 
} 

object node:161
{ 
     name R3-12-47-2_node_114; 
     phases ABCN; 
     voltage_A 7200+0.0j; 
     voltage_B -3600-6235j; 
     voltage_C -3600+6235j; 
     nominal_voltage 7200; 
} 

object node:162
{ 
     name R3-12-47-2_node_115; 
     phases ABCN; 
     voltage_A 7200+0.0j; 
     voltage_B -3600-6235j; 
     voltage_C -3600+6235j; 
     nominal_voltage 7200; 
} 

object node:163
{ 
     name R3-12-47-2_node_116; 
     phases ABCN; 
     voltage_A 7200+0.0j; 
     voltage_B -3600-6235j; 
     voltage_C -3600+6235j; 
     nominal_voltage 7200; 
} 

object node:164
{ 
...